** written by FreeCAD inp file writer for CalculiX,Abaqus meshes
** highest dimension mesh elements only.

** Nodes
*Node, NSET=Nall
1, -100, 15, -5
2, -100, 15, 5
3, -100, -15, -5
4, -100, -15, 5
5, -100, -10, -2
6, -100, 10, -2
7, -100, 10, 2
8, -100, -10, 2
9, 100, 15, -5
10, 100, 15, 5
11, 100, -15, -5
12, 100, -15, 5
13, 100, -10, -2
14, 100, 10, -2
15, 100, 10, 2
16, 100, -10, 2
17, -100, 15, 0
18, -100, -1.95399252334e-14, -5
19, -100, 7.5, -5
20, -100, -7.5, -5
** ... 868 like lines cut


** Volume elements
*Element, TYPE=C3D10, ELSET=Evolumes
405, 208, 161, 56, 57, 610, 609, 258, 261, 611, 66
406, 389, 75, 121, 76, 437, 612, 613, 436, 85, 614
407, 98, 181, 16, 388, 616, 191, 615, 401, 617, 618
408, 389, 121, 75, 120, 613, 612, 437, 619, 130, 620
409, 208, 56, 161, 160, 258, 609, 610, 622, 621, 170
410, 386, 92, 174, 91, 415, 623, 624, 409, 101, 625
411, 205, 134, 32, 31, 627, 626, 225, 226, 628, 41
412, 204, 156, 51, 52, 630, 629, 233, 238, 631, 61
413, 30, 31, 133, 206, 40, 632, 633, 222, 221, 634
414, 387, 174, 90, 91, 636, 635, 405, 410, 625, 100
415, 206, 154, 49, 50, 638, 637, 224, 229, 639, 59
416, 387, 68, 114, 69, 403, 640, 641, 402, 78, 642
417, 390, 95, 177, 94, 429, 643, 644, 424, 104, 645
418, 210, 55, 158, 54, 253, 646, 647, 249, 64, 648
419, 35, 36, 138, 210, 45, 649, 650, 246, 245, 651
420, 212, 33, 137, 34, 236, 652, 653, 235, 43, 654
421, 391, 96, 178, 95, 434, 655, 656, 430, 105, 657
422, 211, 36, 140, 37, 251, 658, 659, 250, 46, 660
423, 392, 180, 96, 97, 662, 661, 435, 440, 663, 106
424, 212, 53, 156, 52, 244, 664, 665, 239, 62, 631
** ... 412 like lines cut

** Define element set Eall
*ELSET, ELSET=Eall
Evolumes



***********************************************************
** Element sets for materials and FEM element type (solid, shell, beam, fluid)
*ELSET,ELSET=MaterialSolidSolid
Evolumes

***********************************************************
** constraints fixed node sets
** ConstraintFixed
*NSET,NSET=ConstraintFixed
9,
10,
11,
12,
13,
14,
15,
16,
29,
87,
88,
89,
109,
110,
111,
112,
132,
152,
172,
192,
** ... 10 like lines cut

** Physical constants for SI(mm) unit system with Kelvins
*PHYSICAL CONSTANTS, ABSOLUTE ZERO=0, STEFAN BOLTZMANN=5.670374419e-11

***********************************************************
** Materials
** see information about units at file end
** FreeCAD material name: Custom
** MaterialSolid
*MATERIAL, NAME=MaterialSolid
*ELASTIC
45000,0.35
*EXPANSION, ZERO=0
2.36E-05

***********************************************************
** Sections
*SOLID SECTION, ELSET=MaterialSolidSolid, MATERIAL=MaterialSolid

***********************************************************
** At least one step is needed to run an CalculiX analysis of FreeCAD
*STEP, INC=2000
*STATIC
1.0,1.0,1e-05,1.0

***********************************************************
** Fixed Constraints
** ConstraintFixed
*BOUNDARY
ConstraintFixed,1
ConstraintFixed,2
ConstraintFixed,3


***********************************************************
** constraints force node loads
** ConstraintForce
*CLOAD
** node loads on shape: Pocket:Face1
1,1,0
2,1,0
3,1,0
4,1,0
5,1,0
6,1,0
7,1,0
8,1,0
17,1,1.893939393939
18,1,0
19,1,1.704545454545
20,1,1.704545454545
21,1,0
22,1,1.704545454545
23,1,1.704545454545
24,1,1.893939393939
25,1,2.272727272727
26,1,0.7575757575758
27,1,2.272727272727
28,1,0.7575757575758
** ... 10 like lines cut



***********************************************************
** Outputs --> frd file
*NODE FILE
U
*EL FILE
S, E
** outputs --> dat file
** reaction forces for Constraint fixed
*NODE PRINT, NSET=ConstraintFixed, TOTALS=ONLY
RF

*OUTPUT, FREQUENCY=1
***********************************************************
*END STEP

***********************************************************
** CalculiX Input file
**   written by    --> FreeCAD 1.1.3
**   written on    --> Tue Aug 18 19:43:33 2026
**   file name     --> link-magnesium-v4.FCStd
**   analysis name --> Analysis
**
**
***********************************************************
**  About units:
**  See ccx manual, ccx does not know about any unit.
**  Golden rule: The user must make sure that the numbers they provide have consistent units.
**  The user is the FreeCAD calculix writer module ;-)
**
**  The unit system which is used at Guido Dhondt's company: mm, N, s, K
**  Since Length and Mass are connected by Force, if Length is mm the Mass is in t to get N
**  The following units are used to write to inp file:
**
**  Length: mm (this includes the mesh geometry)
**  Mass: t
**  TimeSpan: s
**  Temperature: K
**
**  This leads to:
**  Force: N
**  Pressure: N/mm^2 == MPa (Young's Modulus has unit Pressure)
**  Density: t/mm^3
**  Gravity: mm/s^2
**  Thermal conductivity: t*mm/K/s^3 == as W/m/K == kW/mm/K
**  Specific Heat: mm^2/s^2/K = J/kg/K == kJ/t/K
**
